Master_K1/OutputDSS.dss
Clear

New Circuit.EPRIK1_Reduced bus1=Trans_equiv basekv=69 pu=1 R1=0.80626 X1=7.8138 R0=0.91631 X0=14.5568
New Line.k_lsb_k21 Phases=3 bus1=k_lsb.1.2.3 bus2=k21.1.2.3 Units=km Length=0.001 Rmatrix=[1                  0                  0| 0                  1                  0| 0                  0                  1|] Xmatrix=[1                  0                  0| 0     0.999999999999                  0| 0                  0                  1|] Cmatrix=[0                  0                  0| 0                  0                  0| 0                  0                  0|]
New Line.k_lsb_k22 Phases=3 bus1=k_lsb.1.2.3 bus2=k22.1.2.3 Units=km Length=0.001 Rmatrix=[1                  0                  0| 0                  1                  0| 0                  0                  1|] Xmatrix=[1                  0                  0| 0     0.999999999998                  0| 0                  0                  1|] Cmatrix=[0                  0                  0| 0                  0                  0| 0                  0                  0|]
New Line.k21_10580818 Phases=3 bus1=k21.1.2.3 bus2=10580818.1.2.3 Units=km Length=0.061431206 Rmatrix=[ 0.149604666667    0.0762826666666    0.0762826666666| 0.0762826666666     0.149604666667    0.0762826666667| 0.0762826666666    0.0762826666667     0.149604666667|] Xmatrix=[0.649266666666     0.278616666667     0.278616666667| 0.278616666667     0.649266666667     0.278616666667| 0.278616666667     0.278616666667     0.649266666667|] Cmatrix=[0                  0                  0| 0                  0                  0| 0                  0                  0|]
New Line.34097296_10559391 Phases=1 bus1=34097296.1 bus2=10559391.1 Units=km Length=0.11794314 Rmatrix=0.53562 Xmatrix=0.54302 Cmatrix=0
New Line.10558484_10558483 Phases=1 bus1=10558484.2 bus2=10558483.2 Units=km Length=0.1396244 Rmatrix=0.53561999 Xmatrix=0.54301999 Cmatrix=0
New Line.10548932_10549227 Phases=3 bus1=10548932.1.2.3 bus2=10549227.1.2.3 Units=km Length=0.033488829 Rmatrix=[ 0.149604666667    0.0762826666668    0.0762826666668| 0.0762826666668     0.149604666667    0.0762826666669| 0.0762826666668    0.0762826666669     0.149604666667|] Xmatrix=[0.649266666666     0.278616666667     0.278616666667| 0.278616666667     0.649266666666     0.278616666666| 0.278616666667     0.278616666666     0.649266666667|] Cmatrix=[0                  0                  0| 0                  0                  0| 0                  0                  0|]
New Line.10549227_10549228 Phases=3 bus1=10549227.1.2.3 bus2=10549228.1.2.3 Units=km Length=0.12636524 Rmatrix=[ 0.149604665483    0.0762826660626    0.0762826660629| 0.0762826660626     0.149604665482    0.0762826660626| 0.0762826660629    0.0762826660626     0.149604665483|] Xmatrix=[0.649266661529     0.278616664462     0.278616664462| 0.278616664462      0.64926666153     0.278616664462| 0.278616664462     0.278616664462     0.649266661529|] Cmatrix=[0                  0                  0| 0                  0                  0| 0                  0                  0|]
New Line.10549227_10549240 Phases=1 bus1=10549227.2 bus2=10549240.2 Units=km Length=0.006749536 Rmatrix=0.53562 Xmatrix=0.54302 Cmatrix=0
New Line.10548918_10548919 Phases=3 bus1=10548918.1.2.3 bus2=10548919.1.2.3 Units=km Length=0.087900111 Rmatrix=[ 0.220443333333    0.0762833333334    0.0762833333335| 0.0762833333334     0.220443333334    0.0762833333335| 0.0762833333335    0.0762833333335     0.220443333334|] Xmatrix=[0.675746666667     0.278626666667     0.278626666667| 0.278626666667     0.675746666667     0.278626666666| 0.278626666667     0.278626666666     0.675746666667|] Cmatrix=[0                  0                  0| 0                  0                  0| 0                  0                  0|]
New Line.10548918_10548942 Phases=1 bus1=10548918.3 bus2=10548942.3 Units=km Length=0.008685967 Rmatrix=0.53562 Xmatrix=0.54302 Cmatrix=0
New Line.10548919_34085402 Phases=3 bus1=10548919.1.2.3 bus2=34085402.1.2.3 Units=km Length=0.22322534 Rmatrix=[ 0.220443329383    0.0762833319664    0.0762833319664| 0.0762833319664     0.220443329383    0.0762833319664| 0.0762833319664    0.0762833319664     0.220443329383|] Xmatrix=[0.675746654558     0.278626661674     0.278626661674| 0.278626661674     0.675746654558     0.278626661674| 0.278626661674     0.278626661674     0.675746654558|] Cmatrix=[0                  0                  0| 0                  0                  0| 0                  0                  0|]
New Line.10548919_10548946 Phases=2 bus1=10548919.2.3 bus2=10548946.2.3 Units=km Length=0.007654034 Rmatrix=[0.63995            0.10433| 0.10433            0.63995|] Xmatrix=[0.841313333333     0.283693333333| 0.283693333333     0.841313333333|] Cmatrix=[0                  0| 0                  0|]
New Line.34092234_34092313 Phases=1 bus1=34092234.3 bus2=34092313.3 Units=km Length=0.067548075 Rmatrix=1.3515 Xmatrix=0.54581 Cmatrix=0
New Line.34092313_34086805 Phases=1 bus1=34092313.3 bus2=34086805.3 Units=km Length=0.12010679 Rmatrix=1.3515001 Xmatrix=0.54581002 Cmatrix=0
New Line.34095660_34085491 Phases=3 bus1=34095660.1.2.3 bus2=34085491.1.2.3 Units=km Length=0.076128402 Rmatrix=[ 0.149604666667    0.0762826666667    0.0762826666667| 0.0762826666667     0.149604666667    0.0762826666666| 0.0762826666667    0.0762826666666     0.149604666666|] Xmatrix=[0.649266666668     0.278616666666     0.278616666667| 0.278616666666     0.649266666667     0.278616666667| 0.278616666667     0.278616666667     0.649266666666|] Cmatrix=[0                  0                  0| 0                  0                  0| 0                  0                  0|]
New Line.34085491_10549217 Phases=3 bus1=34085491.1.2.3 bus2=10549217.1.2.3 Units=km Length=0.097797292 Rmatrix=[ 0.149604666667    0.0762826666666    0.0762826666667| 0.0762826666666     0.149604666667    0.0762826666666| 0.0762826666667    0.0762826666666     0.149604666667|] Xmatrix=[0.649266666667     0.278616666667     0.278616666667| 0.278616666667     0.649266666667     0.278616666667| 0.278616666667     0.278616666667     0.649266666667|] Cmatrix=[0                  0                  0| 0                  0                  0| 0                  0                  0|]
New Line.34057797_34054972 Phases=1 bus1=34057797.3 bus2=34054972.3 Units=km Length=0.084069266 Rmatrix=0.55774 Xmatrix=0.098425 Cmatrix=0
New Line.34054972_34054971 Phases=1 bus1=34054972.3 bus2=34054971.3 Units=km Length=0.083588793 Rmatrix=0.55774 Xmatrix=0.098425 Cmatrix=0
New Line.10548007_10579832 Phases=1 bus1=10548007.3 bus2=10579832.3 Units=km Length=0.007700547 Rmatrix=0.53562 Xmatrix=0.54302 Cmatrix=0
New Line.10548007_10549292 Phases=3 bus1=10548007.1.2.3 bus2=10549292.1.2.3 Units=km Length=0.038659065 Rmatrix=[ 0.346583333333    0.0762833333333    0.0762833333333| 0.0762833333333     0.346583333333    0.0762833333332| 0.0762833333333    0.0762833333332     0.346583333333|] Xmatrix=[0.70388            0.27861            0.27861| 0.27861            0.70388            0.27861| 0.27861            0.27861            0.70388|] Cmatrix=[0                  0                  0| 0                  0                  0| 0                  0                  0|]
New Line.10579832_10579843 Phases=1 bus1=10579832.3 bus2=10579843.3 Units=km Length=0.077882625 Rmatrix=0.53562 Xmatrix=0.54302 Cmatrix=0
New Line.34086311_10559275 Phases=1 bus1=34086311.1 bus2=10559275.1 Units=km Length=0.098723357 Rmatrix=0.53562 Xmatrix=0.54302 Cmatrix=0
New Line.10559275_34086798 Phases=1 bus1=10559275.1 bus2=34086798.1 Units=km Length=0.070898345 Rmatrix=0.53562 Xmatrix=0.54302 Cmatrix=0
New Line.10558476_10558475 Phases=3 bus1=10558476.1.2.3 bus2=10558475.1.2.3 Units=km Length=0.008193699 Rmatrix=[0.640633333333     0.105013333333     0.105013333333| 0.105013333333     0.640633333333     0.105013333333| 0.105013333333     0.105013333333     0.640633333333|] Xmatrix=[0.839726666667     0.319636666667     0.319636666667| 0.319636666667     0.839726666667     0.319636666667| 0.319636666667     0.319636666667     0.839726666667|] Cmatrix=[0                  0                  0| 0                  0                  0| 0                  0                  0|]
New Line.10558475_10558494 Phases=3 bus1=10558475.1.2.3 bus2=10558494.1.2.3 Units=km Length=0.012200447 Rmatrix=[0.754593333334     0.196853333333     0.196853333333| 0.196853333333     0.754593333333     0.196853333333| 0.196853333333     0.196853333333     0.754593333334|] Xmatrix=[  0.142168333333   -0.0218716666668   -0.0218716666666| -0.0218716666668     0.142168333333   -0.0218716666667| -0.0218716666666   -0.0218716666667     0.142168333333|] Cmatrix=[0                  0                  0| 0                  0                  0| 0                  0                  0|]
New Line.10549222_10549221 Phases=3 bus1=10549222.1.2.3 bus2=10549221.1.2.3 Units=km Length=0.062979628 Rmatrix=[ 0.149604666667    0.0762826666668    0.0762826666669| 0.0762826666668     0.149604666667    0.0762826666671| 0.0762826666669    0.0762826666671     0.149604666667|] Xmatrix=[0.649266666667     0.278616666667     0.278616666667| 0.278616666667     0.649266666667     0.278616666667| 0.278616666667     0.278616666667     0.649266666667|] Cmatrix=[0                  0                  0| 0                  0                  0| 0                  0                  0|]
New Line.10549222_10549260 Phases=1 bus1=10549222.3 bus2=10549260.3 Units=km Length=0.007417994 Rmatrix=0.53562 Xmatrix=0.54302 Cmatrix=0
New Line.10549221_34085490 Phases=3 bus1=10549221.1.2.3 bus2=34085490.1.2.3 Units=km Length=0.13126739 Rmatrix=[0.149604668946     0.076282667829     0.076282667829| 0.076282667829     0.149604668946    0.0762826678289| 0.076282667829    0.0762826678289     0.149604668946|] Xmatrix=[0.649266676559     0.278616670911     0.278616670912| 0.278616670911     0.649266676559     0.278616670912| 0.278616670912     0.278616670912     0.649266676559|] Cmatrix=[0                  0                  0| 0                  0                  0| 0                  0                  0|]
New Line.10549221_10549264 Phases=1 bus1=10549221.2 bus2=10549264.2 Units=km Length=0.007340895 Rmatrix=0.53562 Xmatrix=0.54302 Cmatrix=0
New Line.10548912_10548913 Phases=3 bus1=10548912.1.2.3 bus2=10548913.1.2.3 Units=km Length=0.12723937 Rmatrix=[ 0.220443328132    0.0762833315336    0.0762833315349| 0.0762833315336     0.220443328135    0.0762833315345| 0.0762833315349    0.0762833315345     0.220443328136|] Xmatrix=[0.675746650746     0.278626660101     0.278626660099| 0.278626660101     0.675746650734     0.278626660097| 0.278626660099     0.278626660097     0.675746650737|] Cmatrix=[0                  0                  0| 0                  0                  0| 0                  0                  0|]
New Line.10548912_10548980 Phases=2 bus1=10548912.1.3 bus2=10548980.1.3 Units=km Length=0.007587056 Rmatrix=[0.63995            0.10433| 0.10433            0.63995|] Xmatrix=[0.841313333333     0.283693333333| 0.283693333333     0.841313333333|] Cmatrix=[0                  0| 0                  0|]
New Line.10548913_34090004 Phases=3 bus1=10548913.1.2.3 bus2=34090004.1.2.3 Units=km Length=0.004210908 Rmatrix=[ 0.220443333333    0.0762833333333    0.0762833333333| 0.0762833333333     0.220443333333    0.0762833333333| 0.0762833333333    0.0762833333333     0.220443333333|] Xmatrix=[0.675746666667     0.278626666667     0.278626666667| 0.278626666667     0.675746666667     0.278626666667| 0.278626666667     0.278626666667     0.675746666667|] Cmatrix=[0                  0                  0| 0                  0                  0| 0                  0                  0|]
New Line.10548913_10548963 Phases=1 bus1=10548913.2 bus2=10548963.2 Units=km Length=0.013573783 Rmatrix=0.53562 Xmatrix=0.54302 Cmatrix=0
New Line.10559587_34091314 Phases=1 bus1=10559587.3 bus2=34091314.3 Units=km Length=0.003799378 Rmatrix=0.53562 Xmatrix=0.54302 Cmatrix=0
New Line.34091314_10559588 Phases=1 bus1=34091314.3 bus2=10559588.3 Units=km Length=0.097413818 Rmatrix=0.53562 Xmatrix=0.54302 Cmatrix=0
New Line.34091314_10559589 Phases=1 bus1=34091314.3 bus2=10559589.3 Units=km Length=0.11794176 Rmatrix=0.53562002 Xmatrix=0.54302002 Cmatrix=0
New Line.34085954_34085468 Phases=1 bus1=34085954.3 bus2=34085468.3 Units=km Length=0.59794372 Rmatrix=1.3515 Xmatrix=0.54581 Cmatrix=0
New Line.34085954_10584630 Phases=1 bus1=34085954.3 bus2=10584630.3 Units=km Length=0.014133402 Rmatrix=0.53562 Xmatrix=0.54302 Cmatrix=0
New Line.34085468_34086806 Phases=1 bus1=34085468.3 bus2=34086806.3 Units=km Length=0.19739501 Rmatrix=1.3515 Xmatrix=0.54581001 Cmatrix=0
New Line.20344367_34054966 Phases=1 bus1=20344367.2 bus2=34054966.2 Units=km Length=0.008414458 Rmatrix=0.55774 Xmatrix=0.098425 Cmatrix=0
New Line.10558517_10558958 Phases=1 bus1=10558517.1 bus2=10558958.1 Units=km Length=0.007269772 Rmatrix=1.3546 Xmatrix=0.5314 Cmatrix=0
New Line.10558517_34086403 Phases=3 bus1=10558517.1.2.3 bus2=34086403.1.2.3 Units=km Length=0.057405913 Rmatrix=[ 0.149604666667    0.0762826666666    0.0762826666666| 0.0762826666666     0.149604666667    0.0762826666667| 0.0762826666666    0.0762826666667     0.149604666667|] Xmatrix=[0.649266666667     0.278616666667     0.278616666667| 0.278616666667     0.649266666667     0.278616666667| 0.278616666667     0.278616666667     0.649266666667|] Cmatrix=[0                  0                  0| 0                  0                  0| 0                  0                  0|]
New Line.10558958_10559040 Phases=1 bus1=10558958.1 bus2=10559040.1 Units=km Length=0.072571201 Rmatrix=1.3546 Xmatrix=0.5314 Cmatrix=0
New Line.10557802_10557182 Phases=3 bus1=10557802.1.2.3 bus2=10557182.1.2.3 Units=km Length=0.047292251 Rmatrix=[ 0.149604666667    0.0762826666666    0.0762826666667| 0.0762826666666     0.149604666667    0.0762826666667| 0.0762826666667    0.0762826666667     0.149604666667|] Xmatrix=[0.649266666666     0.278616666667     0.278616666667| 0.278616666667     0.649266666666     0.278616666666| 0.278616666667     0.278616666666     0.649266666667|] Cmatrix=[0                  0                  0| 0                  0                  0| 0                  0                  0|]
New Line.10557802_10548905 Phases=3 bus1=10557802.1.2.3 bus2=10548905.1.2.3 Units=km Length=0.057202832 Rmatrix=[0.660123333333     0.112013333333     0.112013333333| 0.112013333333     0.660123333333     0.112013333333| 0.112013333333     0.112013333333     0.660123333333|] Xmatrix=[0.785106666667     0.315846666667     0.315846666667| 0.315846666667     0.785106666667     0.315846666667| 0.315846666667     0.315846666667     0.785106666667|] Cmatrix=[0                  0                  0| 0                  0                  0| 0                  0                  0|]
New Line.10557182_10548903 Phases=3 bus1=10557182.1.2.3 bus2=10548903.1.2.3 Units=km Length=0.014021824 Rmatrix=[0.640633333333     0.105013333333     0.105013333333| 0.105013333333     0.640633333334     0.105013333333| 0.105013333333     0.105013333333     0.640633333333|] Xmatrix=[0.839726666666     0.319636666667     0.319636666667| 0.319636666667     0.839726666667     0.319636666667| 0.319636666667     0.319636666667     0.839726666667|] Cmatrix=[0                  0                  0| 0                  0                  0| 0                  0                  0|]
New Line.10557182_10548911 Phases=3 bus1=10557182.1.2.3 bus2=10548911.1.2.3 Units=km Length=0.00408656 Rmatrix=[ 0.220443333333    0.0762833333333    0.0762833333333| 0.0762833333333     0.220443333333    0.0762833333333| 0.0762833333333    0.0762833333333     0.220443333333|] Xmatrix=[0.675746666666     0.278626666667     0.278626666667| 0.278626666667     0.675746666666     0.278626666666| 0.278626666667     0.278626666666     0.675746666667|] Cmatrix=[0                  0                  0| 0                  0                  0| 0                  0                  0|]
New Line.20079696_10549020 Phases=1 bus1=20079696.3 bus2=10549020.3 Units=km Length=0.09570423 Rmatrix=1.3546 Xmatrix=0.5314 Cmatrix=0
New Line.10549020_34085461 Phases=1 bus1=10549020.3 bus2=34085461.3 Units=km Length=0.12267947 Rmatrix=1.3546 Xmatrix=0.53140002 Cmatrix=0
New Line.34095590_10548907 Phases=3 bus1=34095590.1.2.3 bus2=10548907.1.2.3 Units=km Length=0.15130309 Rmatrix=[0.660123355148     0.112013337035     0.112013337035| 0.112013337035     0.660123355148     0.112013337035| 0.112013337035     0.112013337035     0.660123355148|] Xmatrix=[0.785106692612     0.315846677104     0.315846677104| 0.315846677104     0.785106692612     0.315846677104| 0.315846677104     0.315846677104     0.785106692612|] Cmatrix=[0                  0                  0| 0                  0                  0| 0                  0                  0|]
New Line.10548907_34085480 Phases=3 bus1=10548907.1.2.3 bus2=34085480.1.2.3 Units=km Length=0.061900727 Rmatrix=[0.660123333333     0.112013333333     0.112013333333| 0.112013333333     0.660123333334     0.112013333333| 0.112013333333     0.112013333333     0.660123333333|] Xmatrix=[0.785106666667     0.315846666667     0.315846666667| 0.315846666667     0.785106666666     0.315846666667| 0.315846666667     0.315846666667     0.785106666667|] Cmatrix=[0                  0                  0| 0                  0                  0| 0                  0                  0|]
New Line.10548965_34090005 Phases=3 bus1=10548965.1.2.3 bus2=34090005.1.2.3 Units=km Length=0.004042566 Rmatrix=[0.640633333333     0.105013333333     0.105013333333| 0.105013333333     0.640633333333     0.105013333333| 0.105013333333     0.105013333333     0.640633333333|] Xmatrix=[0.839726666667     0.319636666667     0.319636666667| 0.319636666667     0.839726666667     0.319636666667| 0.319636666667     0.319636666667     0.839726666666|] Cmatrix=[0                  0                  0| 0                  0                  0| 0                  0                  0|]
New Line.34090005_10559938 Phases=1 bus1=34090005.2 bus2=10559938.2 Units=km Length=0.014437875 Rmatrix=1.3515 Xmatrix=0.54581 Cmatrix=0
New Line.10548983_34085372 Phases=1 bus1=10548983.1 bus2=34085372.1 Units=km Length=0.005372673 Rmatrix=0.53562 Xmatrix=0.54302 Cmatrix=0
New Line.34085372_10548982 Phases=1 bus1=34085372.1 bus2=10548982.1 Units=km Length=0.067280566 Rmatrix=0.53562 Xmatrix=0.54302 Cmatrix=0
New Line.34085372_34095588 Phases=1 bus1=34085372.1 bus2=34095588.1 Units=km Length=0.047365903 Rmatrix=0.53562 Xmatrix=0.54302 Cmatrix=0
New Line.20416460_34054542 Phases=1 bus1=20416460.1 bus2=34054542.1 Units=km Length=0.082644674 Rmatrix=0.55774 Xmatrix=0.098425 Cmatrix=0
New Line.20396671_10579447 Phases=3 bus1=20396671.1.2.3 bus2=10579447.1.2.3 Units=km Length=0.008530931 Rmatrix=[1.4841             0.1326             0.1326| 0.1326             1.4841             0.1326| 0.1326             0.1326             1.4841|] Xmatrix=[0.918666666667     0.395716666667     0.395716666667| 0.395716666667     0.918666666667     0.395716666666| 0.395716666667     0.395716666666     0.918666666666|] Cmatrix=[0                  0                  0| 0                  0                  0| 0                  0                  0|]
New Line.20396671_10580155 Phases=3 bus1=20396671.1.2.3 bus2=10580155.1.2.3 Units=km Length=0.06944648 Rmatrix=[0.640633333333     0.105013333333     0.105013333333| 0.105013333333     0.640633333334     0.105013333333| 0.105013333333     0.105013333333     0.640633333332|] Xmatrix=[0.839726666666     0.319636666666     0.319636666667| 0.319636666666     0.839726666666     0.319636666666| 0.319636666667     0.319636666666     0.839726666666|] Cmatrix=[0                  0                  0| 0                  0                  0| 0                  0                  0|]
New Line.10579447_10558473 Phases=3 bus1=10579447.1.2.3 bus2=10558473.1.2.3 Units=km Length=0.08083391 Rmatrix=[1.4841             0.1326             0.1326| 0.1326             1.4841     0.132599999999| 0.1326     0.132599999999             1.4841|] Xmatrix=[0.918666666665     0.395716666667     0.395716666667| 0.395716666667     0.918666666668     0.395716666667| 0.395716666667     0.395716666667     0.918666666672|] Cmatrix=[0                  0                  0| 0                  0                  0| 0                  0                  0|]
New Line.10579447_10558478 Phases=1 bus1=10579447.3 bus2=10558478.3 Units=km Length=0.008857137 Rmatrix=0.53562 Xmatrix=0.54302 Cmatrix=0
New Line.10558520_10558583 Phases=1 bus1=10558520.2 bus2=10558583.2 Units=km Length=0.007279494 Rmatrix=0.53562 Xmatrix=0.54302 Cmatrix=0
New Line.10558520_10558521 Phases=3 bus1=10558520.1.2.3 bus2=10558521.1.2.3 Units=km Length=0.061385823 Rmatrix=[ 0.149604666667    0.0762826666667    0.0762826666667| 0.0762826666667     0.149604666667    0.0762826666667| 0.0762826666667    0.0762826666667     0.149604666667|] Xmatrix=[0.649266666667     0.278616666667     0.278616666667| 0.278616666667     0.649266666666     0.278616666667| 0.278616666667     0.278616666667     0.649266666667|] Cmatrix=[0                  0                  0| 0                  0                  0| 0                  0                  0|]
New Line.10558583_10558584 Phases=1 bus1=10558583.2 bus2=10558584.2 Units=km Length=0.067808598 Rmatrix=0.53562 Xmatrix=0.54302 Cmatrix=0
New Line.34091315_10555985 Phases=1 bus1=34091315.3 bus2=10555985.3 Units=km Length=0.17194301 Rmatrix=1.3546 Xmatrix=0.53140001 Cmatrix=0
New Line.10549011_10549010 Phases=3 bus1=10549011.1.2.3 bus2=10549010.1.2.3 Units=km Length=0.017276715 Rmatrix=[ 0.149604666667    0.0762826666665    0.0762826666666| 0.0762826666665     0.149604666667    0.0762826666668| 0.0762826666666    0.0762826666668     0.149604666667|] Xmatrix=[0.649266666667     0.278616666667     0.278616666667| 0.278616666667     0.649266666666     0.278616666667| 0.278616666667     0.278616666667     0.649266666667|] Cmatrix=[0                  0                  0| 0                  0                  0| 0                  0                  0|]
New Line.10549011_34085462 Phases=1 bus1=10549011.2 bus2=34085462.2 Units=km Length=0.003808213 Rmatrix=0.53562 Xmatrix=0.54302 Cmatrix=0
New Line.10549010_10549016 Phases=1 bus1=10549010.2 bus2=10549016.2 Units=km Length=0.017108953 Rmatrix=0.53562 Xmatrix=0.54302 Cmatrix=0
New Line.34084951_10548007 Phases=3 bus1=34084951.1.2.3 bus2=10548007.1.2.3 Units=km Length=0.063574085 Rmatrix=[ 0.346583333334    0.0762833333337     0.076283333334| 0.0762833333337     0.346583333332    0.0762833333339|  0.076283333334    0.0762833333339     0.346583333336|] Xmatrix=[       0.70388            0.27861     0.278609999999|        0.27861     0.703879999999     0.278609999999| 0.278609999999     0.278609999999     0.703879999998|] Cmatrix=[0                  0                  0| 0                  0                  0| 0                  0                  0|]
New Line.34084951_10579841 Phases=1 bus1=34084951.2 bus2=10579841.2 Units=km Length=0.013633559 Rmatrix=0.53562 Xmatrix=0.54302 Cmatrix=0
New Line.34084951_10579828 Phases=1 bus1=34084951.3 bus2=10579828.3 Units=km Length=0.013947924 Rmatrix=0.53562 Xmatrix=0.54302 Cmatrix=0
New Line.10558471_34087255 Phases=3 bus1=10558471.1.2.3 bus2=34087255.1.2.3 Units=km Length=0.004478293 Rmatrix=[1.4841             0.1326             0.1326| 0.1326             1.4841             0.1326| 0.1326             0.1326             1.4841|] Xmatrix=[0.918666666666     0.395716666667     0.395716666667| 0.395716666667     0.918666666667     0.395716666667| 0.395716666667     0.395716666667     0.918666666667|] Cmatrix=[0                  0                  0| 0                  0                  0| 0                  0                  0|]
New Line.34087255_34087254 Phases=3 bus1=34087255.1.2.3 bus2=34087254.1.2.3 Units=km Length=0.066936079 Rmatrix=[1.4841             0.1326             0.1326| 0.1326             1.4841             0.1326| 0.1326             0.1326             1.4841|] Xmatrix=[0.918666666666     0.395716666666     0.395716666666| 0.395716666666     0.918666666668     0.395716666667| 0.395716666666     0.395716666667     0.918666666667|] Cmatrix=[0                  0                  0| 0                  0                  0| 0                  0                  0|]
New Line.34087255_20028684 Phases=1 bus1=34087255.2 bus2=20028684.2 Units=km Length=0.013333018 Rmatrix=0.53562 Xmatrix=0.54302 Cmatrix=0
New Line.10549294_34085341 Phases=3 bus1=10549294.1.2.3 bus2=34085341.1.2.3 Units=km Length=0.003795505 Rmatrix=[ 0.346583333333    0.0762833333334    0.0762833333334| 0.0762833333334     0.346583333333    0.0762833333334| 0.0762833333334    0.0762833333334     0.346583333334|] Xmatrix=[0.70388            0.27861            0.27861| 0.27861     0.703880000001            0.27861| 0.27861            0.27861     0.703879999999|] Cmatrix=[0                  0                  0| 0                  0                  0| 0                  0                  0|]
New Line.34085341_10549269 Phases=3 bus1=34085341.1.2.3 bus2=10549269.1.2.3 Units=km Length=0.074116209 Rmatrix=[ 0.346583333333    0.0762833333332    0.0762833333334| 0.0762833333332     0.346583333334    0.0762833333334| 0.0762833333334    0.0762833333334     0.346583333333|] Xmatrix=[0.703879999999            0.27861            0.27861|        0.27861     0.703880000001     0.278609999999|        0.27861     0.278609999999            0.70388|] Cmatrix=[0                  0                  0| 0                  0                  0| 0                  0                  0|]
New Line.34085341_10549295 Phases=1 bus1=34085341.2 bus2=10549295.2 Units=km Length=0.013511757 Rmatrix=1.3515 Xmatrix=0.54581 Cmatrix=0
New Line.34085341_10573493 Phases=1 bus1=34085341.3 bus2=10573493.3 Units=km Length=0.013833219 Rmatrix=0.53562 Xmatrix=0.54302 Cmatrix=0
New Line.34086019_20437313 Phases=1 bus1=34086019.1 bus2=20437313.1 Units=km Length=0.21682499 Rmatrix=1.3515 Xmatrix=0.54581 Cmatrix=0
New Line.20437313_34086011 Phases=1 bus1=20437313.1 bus2=34086011.1 Units=km Length=0.23943788 Rmatrix=1.3515 Xmatrix=0.54581 Cmatrix=0
New Line.20437313_20437314 Phases=1 bus1=20437313.1 bus2=20437314.1 Units=km Length=0.028500678 Rmatrix=0.53562 Xmatrix=0.54302 Cmatrix=0
New Line.34085040_10579118 Phases=1 bus1=34085040.1 bus2=10579118.1 Units=km Length=0.12714042 Rmatrix=1.3515 Xmatrix=0.54581 Cmatrix=0
New Line.10579118_34085321 Phases=1 bus1=10579118.1 bus2=34085321.1 Units=km Length=0.003487076 Rmatrix=1.3515 Xmatrix=0.54581 Cmatrix=0
New Line.10579118_10556735 Phases=1 bus1=10579118.1 bus2=10556735.1 Units=km Length=0.11334602 Rmatrix=0.53562001 Xmatrix=0.54302001 Cmatrix=0
New Line.34086404_10558577 Phases=1 bus1=34086404.3 bus2=10558577.3 Units=km Length=0.092912186 Rmatrix=1.3515 Xmatrix=0.54581 Cmatrix=0
New Line.34086404_10558578 Phases=1 bus1=34086404.3 bus2=10558578.3 Units=km Length=0.017789837 Rmatrix=0.53562 Xmatrix=0.54302 Cmatrix=0
New Line.10558577_20456673 Phases=1 bus1=10558577.3 bus2=20456673.3 Units=km Length=0.090020763 Rmatrix=1.3515 Xmatrix=0.54581 Cmatrix=0
New Line.10558577_20456674 Phases=1 bus1=10558577.3 bus2=20456674.3 Units=km Length=0.029649424 Rmatrix=0.53562 Xmatrix=0.54302 Cmatrix=0
New Line.10579019_10549426 Phases=1 bus1=10579019.2 bus2=10549426.2 Units=km Length=0.013790658 Rmatrix=0.53562 Xmatrix=0.54302 Cmatrix=0
New Line.10579019_34085312 Phases=3 bus1=10579019.1.2.3 bus2=34085312.1.2.3 Units=km Length=0.003283263 Rmatrix=[ 0.346583333333    0.0762833333334    0.0762833333333| 0.0762833333334     0.346583333333    0.0762833333332| 0.0762833333333    0.0762833333332     0.346583333333|] Xmatrix=[0.70388            0.27861            0.27861| 0.27861            0.70388            0.27861| 0.27861            0.27861     0.703880000001|] Cmatrix=[0                  0                  0| 0                  0                  0| 0                  0                  0|]
New Line.10549426_10549286 Phases=1 bus1=10549426.2 bus2=10549286.2 Units=km Length=0.055301734 Rmatrix=0.53562 Xmatrix=0.54302 Cmatrix=0
New Line.10548987_10548988 Phases=1 bus1=10548987.2 bus2=10548988.2 Units=km Length=0.072648168 Rmatrix=0.53562 Xmatrix=0.54302 Cmatrix=0
New Line.10548987_34085371 Phases=1 bus1=10548987.2 bus2=34085371.2 Units=km Length=0.02544613 Rmatrix=0.53562 Xmatrix=0.54302 Cmatrix=0
New Line.10548988_34084592 Phases=1 bus1=10548988.2 bus2=34084592.2 Units=km Length=0.003870648 Rmatrix=0.53562 Xmatrix=0.54302 Cmatrix=0
New Line.10540779_10543795 Phases=3 bus1=10540779.1.2.3 bus2=10543795.1.2.3 Units=km Length=0.082814673 Rmatrix=[ 0.346583333333    0.0762833333333    0.0762833333334| 0.0762833333333     0.346583333333    0.0762833333333| 0.0762833333334    0.0762833333333     0.346583333333|] Xmatrix=[0.70388            0.27861            0.27861| 0.27861            0.70388            0.27861| 0.27861            0.27861            0.70388|] Cmatrix=[0                  0                  0| 0                  0                  0| 0                  0                  0|]
New Line.10543795_34095661 Phases=3 bus1=10543795.1.2.3 bus2=34095661.1.2.3 Units=km Length=0.062669875 Rmatrix=[ 0.346583333333    0.0762833333333    0.0762833333334| 0.0762833333333     0.346583333334    0.0762833333333| 0.0762833333334    0.0762833333333     0.346583333333|] Xmatrix=[0.703880000001            0.27861            0.27861|        0.27861     0.703880000001            0.27861|        0.27861            0.27861     0.703879999998|] Cmatrix=[0                  0                  0| 0                  0                  0| 0                  0                  0|]
New Line.10558563_34086801 Phases=1 bus1=10558563.3 bus2=34086801.3 Units=km Length=0.11245337 Rmatrix=0.53561998 Xmatrix=0.54301998 Cmatrix=0
New Line.34086801_10558562 Phases=1 bus1=34086801.3 bus2=10558562.3 Units=km Length=0.10339577 Rmatrix=0.53562001 Xmatrix=0.54302001 Cmatrix=0
New Line.10549229_34085286 Phases=3 bus1=10549229.1.2.3 bus2=34085286.1.2.3 Units=km Length=0.004610233 Rmatrix=[ 0.149604666667    0.0762826666666    0.0762826666666| 0.0762826666666     0.149604666667    0.0762826666667| 0.0762826666666    0.0762826666667     0.149604666667|] Xmatrix=[0.649266666666     0.278616666667     0.278616666667| 0.278616666667     0.649266666667     0.278616666667| 0.278616666667     0.278616666667     0.649266666667|] Cmatrix=[0                  0                  0| 0                  0                  0| 0                  0                  0|]
New Line.10549229_10559537 Phases=1 bus1=10549229.1 bus2=10559537.1 Units=km Length=0.013455512 Rmatrix=1.3546 Xmatrix=0.5314 Cmatrix=0
New Line.10549229_10549231 Phases=1 bus1=10549229.2 bus2=10549231.2 Units=km Length=0.014037915 Rmatrix=0.53562 Xmatrix=0.54302 Cmatrix=0
New Line.34085286_10549226 Phases=3 bus1=34085286.1.2.3 bus2=10549226.1.2.3 Units=km Length=0.096128139 Rmatrix=[ 0.149604666667    0.0762826666667    0.0762826666667| 0.0762826666667     0.149604666667    0.0762826666668| 0.0762826666667    0.0762826666668     0.149604666667|] Xmatrix=[0.649266666667     0.278616666667     0.278616666667| 0.278616666667     0.649266666668     0.278616666666| 0.278616666667     0.278616666666     0.649266666668|] Cmatrix=[0                  0                  0| 0                  0                  0| 0                  0                  0|]
New Line.34095644_20396847 Phases=1 bus1=34095644.1 bus2=20396847.1 Units=km Length=0.007242332 Rmatrix=0.53562 Xmatrix=0.54302 Cmatrix=0
New Line.34095644_20396846 Phases=3 bus1=34095644.1.2.3 bus2=20396846.1.2.3 Units=km Length=0.45511866 Rmatrix=[0.660123331883     0.112013333087     0.112013333087| 0.112013333087     0.660123331883     0.112013333087| 0.112013333087     0.112013333087     0.660123331883|] Xmatrix=[0.785106664945     0.315846665974     0.315846665974| 0.315846665974     0.785106664941     0.315846665973| 0.315846665974     0.315846665973     0.785106664943|] Cmatrix=[0                  0                  0| 0                  0                  0| 0                  0                  0|]
New Line.20396847_20396849 Phases=1 bus1=20396847.1 bus2=20396849.1 Units=km Length=0.009975549 Rmatrix=0.53562 Xmatrix=0.54302 Cmatrix=0
New Line.10574852_10574854 Phases=1 bus1=10574852.3 bus2=10574854.3 Units=km Length=0.039272164 Rmatrix=0.53562 Xmatrix=0.54302 Cmatrix=0
New Line.10574852_10574853 Phases=1 bus1=10574852.3 bus2=10574853.3 Units=km Length=0.10219466 Rmatrix=1.3546 Xmatrix=0.53139999 Cmatrix=0
New Line.34086415_10558570 Phases=1 bus1=34086415.3 bus2=10558570.3 Units=km Length=0.28277309 Rmatrix=0.53561999 Xmatrix=0.54301999 Cmatrix=0
New Line.10549217_10549307 Phases=1 bus1=10549217.2 bus2=10549307.2 Units=km Length=0.007677543 Rmatrix=1.3515 Xmatrix=0.54581 Cmatrix=0
New Line.10549217_10549216 Phases=3 bus1=10549217.1.2.3 bus2=10549216.1.2.3 Units=km Length=0.037502619 Rmatrix=[ 0.149604666667    0.0762826666667    0.0762826666667| 0.0762826666667     0.149604666667    0.0762826666666| 0.0762826666667    0.0762826666666     0.149604666667|] Xmatrix=[0.649266666667     0.278616666667     0.278616666667| 0.278616666667     0.649266666666     0.278616666667| 0.278616666667     0.278616666667     0.649266666667|] Cmatrix=[0                  0                  0| 0                  0                  0| 0                  0                  0|]
New Line.10549307_10549309 Phases=1 bus1=10549307.2 bus2=10549309.2 Units=km Length=0.081656781 Rmatrix=1.3515 Xmatrix=0.54581 Cmatrix=0
New Line.10549220_10540779 Phases=3 bus1=10549220.1.2.3 bus2=10540779.1.2.3 Units=km Length=0.0132246 Rmatrix=[ 0.346583333333    0.0762833333333    0.0762833333333| 0.0762833333333     0.346583333333    0.0762833333333| 0.0762833333333    0.0762833333333     0.346583333333|] Xmatrix=[0.70388            0.27861            0.27861| 0.27861            0.70388            0.27861| 0.27861            0.27861            0.70388|] Cmatrix=[0                  0                  0| 0                  0                  0| 0                  0                  0|]
New Line.10549220_10549219 Phases=3 bus1=10549220.1.2.3 bus2=10549219.1.2.3 Units=km Length=0.052448504 Rmatrix=[ 0.149604666666     0.076282666667    0.0762826666662|  0.076282666667     0.149604666665    0.0762826666667| 0.0762826666662    0.0762826666667     0.149604666665|] Xmatrix=[0.649266666668     0.278616666667     0.278616666667| 0.278616666667     0.649266666669     0.278616666667| 0.278616666667     0.278616666667     0.649266666668|] Cmatrix=[0                  0                  0| 0                  0                  0| 0                  0                  0|]
New Line.10549220_20079696 Phases=1 bus1=10549220.3 bus2=20079696.3 Units=km Length=0.013560889 Rmatrix=1.3546 Xmatrix=0.5314 Cmatrix=0
New Line.34086011_40152453 Phases=1 bus1=34086011.1 bus2=40152453.1 Units=km Length=0.037963596 Rmatrix=0.53562 Xmatrix=0.54302 Cmatrix=0
New Line.34086011_40154810 Phases=1 bus1=34086011.1 bus2=40154810.1 Units=km Length=0.16351122 Rmatrix=1.3515 Xmatrix=0.54580999 Cmatrix=0
New Line.40152453_40156534 Phases=1 bus1=40152453.1 bus2=40156534.1 Units=km Length=0.009730346 Rmatrix=0.53562 Xmatrix=0.54302 Cmatrix=0
New Line.20344371_34086794 Phases=1 bus1=20344371.2 bus2=34086794.2 Units=km Length=0.049560183 Rmatrix=0.53562 Xmatrix=0.54302 Cmatrix=0
New Line.34086794_20344372 Phases=1 bus1=34086794.2 bus2=20344372.2 Units=km Length=0.053594034 Rmatrix=0.53562 Xmatrix=0.54302 Cmatrix=0
New Line.10549289_34085048 Phases=1 bus1=10549289.3 bus2=34085048.3 Units=km Length=0.070245096 Rmatrix=0.53562 Xmatrix=0.54302 Cmatrix=0
New Line.34084593_20350796 Phases=1 bus1=34084593.2 bus2=20350796.2 Units=km Length=0.063046173 Rmatrix=0.53562 Xmatrix=0.54302 Cmatrix=0
New Line.10573493_10573492 Phases=1 bus1=10573493.3 bus2=10573492.3 Units=km Length=0.033117836 Rmatrix=0.53562 Xmatrix=0.54302 Cmatrix=0
New Line.10573492_10573495 Phases=1 bus1=10573492.3 bus2=10573495.3 Units=km Length=0.069029487 Rmatrix=0.53562 Xmatrix=0.54302 Cmatrix=0
New Line.10573492_10573328 Phases=1 bus1=10573492.3 bus2=10573328.3 Units=km Length=0.090789079 Rmatrix=0.53562 Xmatrix=0.54302 Cmatrix=0
New Line.10558560_10558564 Phases=1 bus1=10558560.3 bus2=10558564.3 Units=km Length=0.007629393 Rmatrix=0.53562 Xmatrix=0.54302 Cmatrix=0
New Line.10558560_34096115 Phases=3 bus1=10558560.1.2.3 bus2=34096115.1.2.3 Units=km Length=0.093082827 Rmatrix=[ 0.149604666667    0.0762826666667    0.0762826666667| 0.0762826666667     0.149604666667    0.0762826666668| 0.0762826666667    0.0762826666668     0.149604666667|] Xmatrix=[0.649266666667     0.278616666667     0.278616666667| 0.278616666667     0.649266666667     0.278616666666| 0.278616666667     0.278616666666     0.649266666667|] Cmatrix=[0                  0                  0| 0                  0                  0| 0                  0                  0|]
New Line.10558564_10558563 Phases=1 bus1=10558564.3 bus2=10558563.3 Units=km Length=0.043874879 Rmatrix=0.53562 Xmatrix=0.54302 Cmatrix=0
New Line.10549274_10579019 Phases=3 bus1=10549274.1.2.3 bus2=10579019.1.2.3 Units=km Length=0.093377879 Rmatrix=[ 0.346583333335    0.0762833333352    0.0762833333341| 0.0762833333352     0.346583333332     0.076283333332| 0.0762833333341     0.076283333332     0.346583333332|] Xmatrix=[0.703880000001     0.278609999996     0.278609999999| 0.278609999996     0.703880000011     0.278610000004| 0.278609999999     0.278610000004            0.70388|] Cmatrix=[0                  0                  0| 0                  0                  0| 0                  0                  0|]
New Line.10549274_10549291 Phases=1 bus1=10549274.2 bus2=10549291.2 Units=km Length=0.012893357 Rmatrix=0.53562 Xmatrix=0.54302 Cmatrix=0
New Line.10549274_10549283 Phases=1 bus1=10549274.2 bus2=10549283.2 Units=km Length=0.012832531 Rmatrix=0.53562 Xmatrix=0.54302 Cmatrix=0
New Line.10549291_10549285 Phases=1 bus1=10549291.2 bus2=10549285.2 Units=km Length=0.063498262 Rmatrix=0.53562 Xmatrix=0.54302 Cmatrix=0
New Line.10548967_10548968 Phases=1 bus1=10548967.1 bus2=10548968.1 Units=km Length=0.032707558 Rmatrix=0.53562 Xmatrix=0.54302 Cmatrix=0
New Line.10561915_10532911 Phases=1 bus1=10561915.3 bus2=10532911.3 Units=km Length=0.19252891 Rmatrix=0.53561999 Xmatrix=0.54301999 Cmatrix=0
New Line.10532911_34086802 Phases=1 bus1=10532911.3 bus2=34086802.3 Units=km Length=0.15446831 Rmatrix=0.53562001 Xmatrix=0.54302001 Cmatrix=0
New Line.34086302_34097398 Phases=1 bus1=34086302.3 bus2=34097398.3 Units=km Length=0.065061204 Rmatrix=1.3546 Xmatrix=0.5314 Cmatrix=0
New Line.34086302_10558581 Phases=1 bus1=34086302.3 bus2=10558581.3 Units=km Length=0.082496962 Rmatrix=0.53562 Xmatrix=0.54302 Cmatrix=0
New Line.34097398_10574852 Phases=1 bus1=34097398.3 bus2=10574852.3 Units=km Length=0.077597577 Rmatrix=1.3546 Xmatrix=0.5314 Cmatrix=0
New Line.34086403_10558518 Phases=3 bus1=34086403.1.2.3 bus2=10558518.1.2.3 Units=km Length=0.075318614 Rmatrix=[ 0.149604666667    0.0762826666666    0.0762826666666| 0.0762826666666     0.149604666667    0.0762826666667| 0.0762826666666    0.0762826666667     0.149604666667|] Xmatrix=[0.649266666667     0.278616666667     0.278616666667| 0.278616666667     0.649266666667     0.278616666667| 0.278616666667     0.278616666667     0.649266666667|] Cmatrix=[0                  0                  0| 0                  0                  0| 0                  0                  0|]
New Line.34085321_34085042 Phases=1 bus1=34085321.1 bus2=34085042.1 Units=km Length=0.093506829 Rmatrix=1.3515 Xmatrix=0.54581 Cmatrix=0
New Line.34085042_10579071 Phases=1 bus1=34085042.1 bus2=10579071.1 Units=km Length=0.18960424 Rmatrix=1.3515 Xmatrix=0.54580999 Cmatrix=0
New Line.34055522_20344333 Phases=1 bus1=34055522.1 bus2=20344333.1 Units=km Length=0.16054906 Rmatrix=0.55774 Xmatrix=0.098425 Cmatrix=0
New Line.20344333_34054980 Phases=1 bus1=20344333.1 bus2=34054980.1 Units=km Length=0.15056637 Rmatrix=0.55774001 Xmatrix=0.098425002 Cmatrix=0
New Line.34086799_10560618 Phases=1 bus1=34086799.3 bus2=10560618.3 Units=km Length=0.07835821 Rmatrix=0.53562 Xmatrix=0.54302 Cmatrix=0
New Line.34086799_10585091 Phases=1 bus1=34086799.3 bus2=10585091.3 Units=km Length=0.091559236 Rmatrix=0.53562 Xmatrix=0.54302 Cmatrix=0
New Line.10558559_10558558 Phases=1 bus1=10558559.2 bus2=10558558.2 Units=km Length=0.009070396 Rmatrix=0.53562 Xmatrix=0.54302 Cmatrix=0
New Line.10558558_10558646 Phases=1 bus1=10558558.2 bus2=10558646.2 Units=km Length=0.18315229 Rmatrix=0.55773999 Xmatrix=0.098424998 Cmatrix=0
New Line.34085480_10548960 Phases=1 bus1=34085480.2 bus2=10548960.2 Units=km Length=0.009036101 Rmatrix=0.53562 Xmatrix=0.54302 Cmatrix=0
New Line.34085480_34084616 Phases=3 bus1=34085480.1.2.3 bus2=34084616.1.2.3 Units=km Length=0.048916855 Rmatrix=[0.660123333333     0.112013333333     0.112013333333| 0.112013333333     0.660123333333     0.112013333333| 0.112013333333     0.112013333333     0.660123333333|] Xmatrix=[0.785106666667     0.315846666667     0.315846666667| 0.315846666667     0.785106666667     0.315846666667| 0.315846666667     0.315846666667     0.785106666667|] Cmatrix=[0                  0                  0| 0                  0                  0| 0                  0                  0|]
New Line.10548960_10548961 Phases=1 bus1=10548960.2 bus2=10548961.2 Units=km Length=0.11061415 Rmatrix=0.53562001 Xmatrix=0.54302001 Cmatrix=0
New Line.10558524_10526890 Phases=3 bus1=10558524.1.2.3 bus2=10526890.1.2.3 Units=km Length=0.053695567 Rmatrix=[0.640633333333     0.105013333333     0.105013333333| 0.105013333333     0.640633333333     0.105013333333| 0.105013333333     0.105013333333     0.640633333333|] Xmatrix=[0.839726666667     0.319636666667     0.319636666667| 0.319636666667     0.839726666667     0.319636666667| 0.319636666667     0.319636666667     0.839726666667|] Cmatrix=[0                  0                  0| 0                  0                  0| 0                  0                  0|]
New Line.34086805_34097392 Phases=1 bus1=34086805.3 bus2=34097392.3 Units=km Length=0.11488538 Rmatrix=1.3515 Xmatrix=0.54580998 Cmatrix=0
New Line.34097392_34091439 Phases=1 bus1=34097392.3 bus2=34091439.3 Units=km Length=0.099823811 Rmatrix=1.3515 Xmatrix=0.54581 Cmatrix=0
New Line.10524061_34086382 Phases=1 bus1=10524061.3 bus2=34086382.3 Units=km Length=0.070669954 Rmatrix=0.53562 Xmatrix=0.54302 Cmatrix=0
New Line.34086382_10524153 Phases=1 bus1=34086382.3 bus2=10524153.3 Units=km Length=0.063547198 Rmatrix=0.53562 Xmatrix=0.54302 Cmatrix=0
New Line.34086382_10524870 Phases=1 bus1=34086382.3 bus2=10524870.3 Units=km Length=0.007619422 Rmatrix=0.53562 Xmatrix=0.54302 Cmatrix=0
New Line.34085037_34085036 Phases=3 bus1=34085037.1.2.3 bus2=34085036.1.2.3 Units=km Length=0.094771115 Rmatrix=[ 0.346583333333    0.0762833333333    0.0762833333333| 0.0762833333333     0.346583333333    0.0762833333333| 0.0762833333333    0.0762833333333     0.346583333333|] Xmatrix=[0.70388            0.27861            0.27861| 0.27861            0.70388            0.27861| 0.27861            0.27861            0.70388|] Cmatrix=[0                  0                  0| 0                  0                  0| 0                  0                  0|]
New Line.34085036_10549278 Phases=3 bus1=34085036.1.2.3 bus2=10549278.1.2.3 Units=km Length=0.10376544 Rmatrix=[ 0.346583333333    0.0762833333334    0.0762833333333| 0.0762833333334     0.346583333333    0.0762833333333| 0.0762833333333    0.0762833333333     0.346583333333|] Xmatrix=[0.70388            0.27861            0.27861| 0.27861            0.70388            0.27861| 0.27861            0.27861            0.70388|] Cmatrix=[0                  0                  0| 0                  0                  0| 0                  0                  0|]
New Line.34086405_20251419 Phases=1 bus1=34086405.3 bus2=20251419.3 Units=km Length=0.052661933 Rmatrix=0.53562 Xmatrix=0.54302 Cmatrix=0
New Line.34086405_20251418 Phases=1 bus1=34086405.3 bus2=20251418.3 Units=km Length=0.082939484 Rmatrix=0.53562 Xmatrix=0.54302 Cmatrix=0
New Line.34095649_10560337 Phases=1 bus1=34095649.2 bus2=10560337.2 Units=km Length=0.064155538 Rmatrix=0.53562 Xmatrix=0.54302 Cmatrix=0
New Line.34095649_10560338 Phases=1 bus1=34095649.2 bus2=10560338.2 Units=km Length=0.10907495 Rmatrix=0.53562001 Xmatrix=0.54302001 Cmatrix=0
New Line.10558549_10558551 Phases=1 bus1=10558549.1 bus2=10558551.1 Units=km Length=0.04355428 Rmatrix=0.53562 Xmatrix=0.54302 Cmatrix=0
New Line.10558549_10558550 Phases=1 bus1=10558549.1 bus2=10558550.1 Units=km Length=0.092736737 Rmatrix=0.53562 Xmatrix=0.54302 Cmatrix=0
New Line.10558551_34086381 Phases=1 bus1=10558551.1 bus2=34086381.1 Units=km Length=0.002752055 Rmatrix=0.53562 Xmatrix=0.54302 Cmatrix=0
New Line.34085035_10549274 Phases=3 bus1=34085035.1.2.3 bus2=10549274.1.2.3 Units=km Length=0.056153464 Rmatrix=[ 0.346583333333    0.0762833333334    0.0762833333333| 0.0762833333334     0.346583333333    0.0762833333333| 0.0762833333333    0.0762833333333     0.346583333333|] Xmatrix=[0.70388            0.27861            0.27861| 0.27861            0.70388            0.27861| 0.27861            0.27861            0.70388|] Cmatrix=[0                  0                  0| 0                  0                  0| 0                  0                  0|]
New Line.10548909_10548952 Phases=1 bus1=10548909.1 bus2=10548952.1 Units=km Length=0.009522562 Rmatrix=0.53562 Xmatrix=0.54302 Cmatrix=0
New Line.10548909_10548910 Phases=3 bus1=10548909.1.2.3 bus2=10548910.1.2.3 Units=km Length=0.4410883 Rmatrix=[0.660123333333     0.112013333333     0.112013333333| 0.112013333333     0.660123333333     0.112013333333| 0.112013333333     0.112013333333     0.660123333333|] Xmatrix=[0.785106666667     0.315846666667     0.315846666667| 0.315846666667     0.785106666667     0.315846666667| 0.315846666667     0.315846666667     0.785106666667|] Cmatrix=[0                  0                  0| 0                  0                  0| 0                  0                  0|]
New Line.10548952_10548953 Phases=1 bus1=10548952.1 bus2=10548953.1 Units=km Length=0.089887106 Rmatrix=0.53562 Xmatrix=0.54302 Cmatrix=0
New Line.34086401_10524061 Phases=1 bus1=34086401.3 bus2=10524061.3 Units=km Length=0.087302147 Rmatrix=0.53562 Xmatrix=0.54302 Cmatrix=0
New Line.34096115_10558513 Phases=3 bus1=34096115.1.2.3 bus2=10558513.1.2.3 Units=km Length=0.10416613 Rmatrix=[0.149604663794     0.076282665202     0.076282665202| 0.076282665202     0.149604663794     0.076282665202| 0.076282665202     0.076282665202     0.149604663794|] Xmatrix=[  0.6492666542     0.278616661317     0.278616661317| 0.278616661317     0.649266654201     0.278616661317| 0.278616661317     0.278616661317     0.649266654201|] Cmatrix=[0                  0                  0| 0                  0                  0| 0                  0                  0|]
New Line.10558469_34086318 Phases=3 bus1=10558469.1.2.3 bus2=34086318.1.2.3 Units=km Length=0.003487981 Rmatrix=[1.4841             0.1326             0.1326| 0.1326             1.4841             0.1326| 0.1326             0.1326             1.4841|] Xmatrix=[0.918666666667     0.395716666667     0.395716666668| 0.395716666667     0.918666666667     0.395716666667| 0.395716666668     0.395716666667     0.918666666666|] Cmatrix=[0                  0                  0| 0                  0                  0| 0                  0                  0|]
New Line.10558469_10558484 Phases=1 bus1=10558469.2 bus2=10558484.2 Units=km Length=0.013416006 Rmatrix=0.53562 Xmatrix=0.54302 Cmatrix=0
New Line.34086318_34086324 Phases=3 bus1=34086318.1.2.3 bus2=34086324.1.2.3 Units=km Length=0.068276356 Rmatrix=[1.4841             0.1326             0.1326| 0.1326             1.4841             0.1326| 0.1326             0.1326             1.4841|] Xmatrix=[0.918666666667     0.395716666667     0.395716666666| 0.395716666667     0.918666666666     0.395716666667| 0.395716666666     0.395716666667     0.918666666665|] Cmatrix=[0                  0                  0| 0                  0                  0| 0                  0                  0|]
New Line.10579841_34084954 Phases=1 bus1=10579841.2 bus2=34084954.2 Units=km Length=0.050968706 Rmatrix=0.53562 Xmatrix=0.54302 Cmatrix=0
New Line.34084954_34084953 Phases=1 bus1=34084954.2 bus2=34084953.2 Units=km Length=0.067513993 Rmatrix=0.53562 Xmatrix=0.54302 Cmatrix=0
New Line.34085342_20079698 Phases=3 bus1=34085342.1.2.3 bus2=20079698.1.2.3 Units=km Length=0.029501515 Rmatrix=[0.640633333333     0.105013333333     0.105013333333| 0.105013333333     0.640633333334     0.105013333333| 0.105013333333     0.105013333333     0.640633333334|] Xmatrix=[0.839726666667     0.319636666666     0.319636666667| 0.319636666666     0.839726666668     0.319636666667| 0.319636666667     0.319636666667     0.839726666666|] Cmatrix=[0                  0                  0| 0                  0                  0| 0                  0                  0|]
New Line.20079698_20079699 Phases=3 bus1=20079698.1.2.3 bus2=20079699.1.2.3 Units=km Length=0.10406628 Rmatrix=[0.640633351802     0.105013336361     0.105013336361| 0.105013336361     0.640633351801     0.105013336361| 0.105013336361     0.105013336361     0.640633351801|] Xmatrix=[0.839726690874      0.31963667588     0.319636675882|  0.31963667588     0.839726690876     0.319636675881| 0.319636675882     0.319636675881     0.839726690875|] Cmatrix=[0                  0                  0| 0                  0                  0| 0                  0                  0|]
New Line.34084666_10559617 Phases=1 bus1=34084666.2 bus2=10559617.2 Units=km Length=0.044209203 Rmatrix=1.3515 Xmatrix=0.54581 Cmatrix=0
New Line.10559617_34095650 Phases=1 bus1=10559617.2 bus2=34095650.2 Units=km Length=0.025022442 Rmatrix=1.3515 Xmatrix=0.54581 Cmatrix=0
New Line.10559617_10560401 Phases=1 bus1=10559617.2 bus2=10560401.2 Units=km Length=0.069790873 Rmatrix=1.3515 Xmatrix=0.54581 Cmatrix=0
New Line.10558543_10558545 Phases=1 bus1=10558543.2 bus2=10558545.2 Units=km Length=0.041969702 Rmatrix=0.53562 Xmatrix=0.54302 Cmatrix=0
New Line.10558543_34096113 Phases=1 bus1=10558543.2 bus2=34096113.2 Units=km Length=0.003795642 Rmatrix=0.53562 Xmatrix=0.54302 Cmatrix=0
New Line.10549262_10549263 Phases=1 bus1=10549262.1 bus2=10549263.1 Units=km Length=0.013894296 Rmatrix=0.53562 Xmatrix=0.54302 Cmatrix=0
New Line.10548946_10548945 Phases=2 bus1=10548946.2.3 bus2=10548945.2.3 Units=km Length=0.010045174 Rmatrix=[0.63995            0.10433| 0.10433            0.63995|] Xmatrix=[0.841313333333     0.283693333333| 0.283693333333     0.841313333333|] Cmatrix=[0                  0| 0                  0|]
New Line.34085262_34095665 Phases=1 bus1=34085262.2 bus2=34095665.2 Units=km Length=0.053938022 Rmatrix=1.3515 Xmatrix=0.54581 Cmatrix=0
New Line.34095665_34085260 Phases=1 bus1=34095665.2 bus2=34085260.2 Units=km Length=0.084035649 Rmatrix=1.3515 Xmatrix=0.54581 Cmatrix=0
New Line.10559090_34086306 Phases=1 bus1=10559090.1 bus2=34086306.1 Units=km Length=0.050564577 Rmatrix=1.3546 Xmatrix=0.5314 Cmatrix=0
New Line.34086306_34086305 Phases=1 bus1=34086306.1 bus2=34086305.1 Units=km Length=0.046586899 Rmatrix=1.3546 Xmatrix=0.5314 Cmatrix=0
New Line.34095650_34084664 Phases=1 bus1=34095650.2 bus2=34084664.2 Units=km Length=0.076326116 Rmatrix=1.3515 Xmatrix=0.54581 Cmatrix=0
New Line.34084664_34084665 Phases=1 bus1=34084664.2 bus2=34084665.2 Units=km Length=0.088621155 Rmatrix=1.3515 Xmatrix=0.54581 Cmatrix=0
New Line.10548934_20014991 Phases=3 bus1=10548934.1.2.3 bus2=20014991.1.2.3 Units=km Length=0.071426759 Rmatrix=[0.640633333333     0.105013333333     0.105013333333| 0.105013333333     0.640633333333     0.105013333333| 0.105013333333     0.105013333333     0.640633333333|] Xmatrix=[0.839726666667     0.319636666667     0.319636666666| 0.319636666667     0.839726666667     0.319636666666| 0.319636666666     0.319636666666     0.839726666666|] Cmatrix=[0                  0                  0| 0                  0                  0| 0                  0                  0|]
New Line.20014991_34095589 Phases=3 bus1=20014991.1.2.3 bus2=34095589.1.2.3 Units=km Length=0.07208044 Rmatrix=[0.640633333333     0.105013333333     0.105013333333| 0.105013333333     0.640633333334     0.105013333333| 0.105013333333     0.105013333333     0.640633333333|] Xmatrix=[0.839726666666     0.319636666667     0.319636666667| 0.319636666667     0.839726666667     0.319636666667| 0.319636666667     0.319636666667     0.839726666667|] Cmatrix=[0                  0                  0| 0                  0                  0| 0                  0                  0|]
New Line.10559590_10559587 Phases=1 bus1=10559590.3 bus2=10559587.3 Units=km Length=0.13517092 Rmatrix=0.53562001 Xmatrix=0.54302001 Cmatrix=0
New Line.10558515_10558525 Phases=3 bus1=10558515.1.2.3 bus2=10558525.1.2.3 Units=km Length=0.054309948 Rmatrix=[0.640633333331     0.105013333334     0.105013333334| 0.105013333334     0.640633333331     0.105013333334| 0.105013333334     0.105013333334     0.640633333334|] Xmatrix=[0.839726666662     0.319636666666     0.319636666666| 0.319636666666     0.839726666663     0.319636666667| 0.319636666666     0.319636666667     0.839726666667|] Cmatrix=[0                  0                  0| 0                  0                  0| 0                  0                  0|]
New Line.10558515_34086410 Phases=3 bus1=10558515.1.2.3 bus2=34086410.1.2.3 Units=km Length=0.003802821 Rmatrix=[ 0.149604666667    0.0762826666666    0.0762826666667| 0.0762826666666     0.149604666667    0.0762826666667| 0.0762826666667    0.0762826666667     0.149604666667|] Xmatrix=[0.649266666667     0.278616666666     0.278616666667| 0.278616666666     0.649266666666     0.278616666667| 0.278616666667     0.278616666667     0.649266666667|] Cmatrix=[0                  0                  0| 0                  0                  0| 0                  0                  0|]
New Line.10558525_10558524 Phases=3 bus1=10558525.1.2.3 bus2=10558524.1.2.3 Units=km Length=0.088020801 Rmatrix=[0.640633333333     0.105013333333     0.105013333333| 0.105013333333     0.640633333333     0.105013333333| 0.105013333333     0.105013333333     0.640633333333|] Xmatrix=[0.839726666666     0.319636666667     0.319636666667| 0.319636666667     0.839726666667     0.319636666667| 0.319636666667     0.319636666667     0.839726666667|] Cmatrix=[0                  0                  0| 0                  0                  0| 0                  0                  0|]
New Line.34095666_10549255 Phases=1 bus1=34095666.3 bus2=10549255.3 Units=km Length=0.21354127 Rmatrix=1.3515 Xmatrix=0.54581001 Cmatrix=0
New Line.34095666_10549259 Phases=1 bus1=34095666.3 bus2=10549259.3 Units=km Length=0.11403526 Rmatrix=0.53562 Xmatrix=0.54302 Cmatrix=0
New Line.10549255_34095667 Phases=1 bus1=10549255.3 bus2=34095667.3 Units=km Length=0.051468815 Rmatrix=1.3515 Xmatrix=0.54581 Cmatrix=0
New Line.34095581_10548940 Phases=1 bus1=34095581.2 bus2=10548940.2 Units=km Length=0.19527526 Rmatrix=0.53562001 Xmatrix=0.54302001 Cmatrix=0
...
New Reactor.T2_neutral Phases=1 Bus1=K_LSB.4 Bus2=K_LSB.0 X=0.5 Basefreq=60
New Transformer.T2 Phases=3 Windings=2 Buses=[Trans_equiv.1.2.3 K_LSB.1.2.3.4] Conns=[delta wye] kVs=[66         13.8] kVAs=[12000  12000] XHL=7.9042 %Noloadloss=0 %imag=0 sub=y MaxTap=1.1 MinTap=0.9 Wdg=1 %R=0.25004 Wdg=2 %R=0.25004
New Transformer.10559391_SA Phases=1 XHL=2.1 %Loadloss=0.7639 %Noloadloss=0 %imag=0 EmergHKVA=35 Wdg=1 Bus=10559391.1 kV=7.62 kVA=25 Wdg=2 Bus=sec_10559391.1 kV=0.24 kVA=25
New Transformer.10558483_SB Phases=1 XHL=2.1 %Loadloss=0.7639 %Noloadloss=0 %imag=0 EmergHKVA=35 Wdg=1 Bus=10558483.2 kV=7.62 kVA=25 Wdg=2 Bus=sec_10558483.2 kV=0.24 kVA=25
New Transformer.34092313_SC Phases=1 XHL=2.1 %Loadloss=0.7639 %Noloadloss=0 %imag=0 EmergHKVA=21 Wdg=1 Bus=34092313.3 kV=7.62 kVA=15 Wdg=2 Bus=sec_34092313.3 kV=0.24 kVA=15
New Transformer.34085491_SB Phases=1 XHL=2.1 %Loadloss=0.7639 %Noloadloss=0 %imag=0 EmergHKVA=51.8 Wdg=1 Bus=34085491.2 kV=7.62 kVA=37.5 Wdg=2 Bus=sec_34085491.2 kV=0.24 kVA=37.5
New Transformer.34054972_SC Phases=1 XHL=1.7532 %Loadloss=0.738 %Noloadloss=0 %imag=0 EmergHKVA=70 Wdg=1 Bus=34054972.3 kV=7.62 kVA=50 Wdg=2 Bus=sec_34054972.3 kV=0.24 kVA=50
New Transformer.10559275_SA Phases=1 XHL=1.765 %Loadloss=0.811 %Noloadloss=0 %imag=0 EmergHKVA=21 Wdg=1 Bus=10559275.1 kV=7.62 kVA=15 Wdg=2 Bus=sec_10559275.1 kV=0.24 kVA=15
New Transformer.34085468_SC Phases=1 XHL=1.765 %Loadloss=0.811 %Noloadloss=0 %imag=0 EmergHKVA=21 Wdg=1 Bus=34085468.3 kV=7.62 kVA=15 Wdg=2 Bus=sec_34085468.3 kV=0.24 kVA=15
New Transformer.10549020_SC Phases=1 XHL=1.765 %Loadloss=0.811 %Noloadloss=0 %imag=0 EmergHKVA=21 Wdg=1 Bus=10549020.3 kV=7.62 kVA=15 Wdg=2 Bus=sec_10549020.3 kV=0.24 kVA=15
New Transformer.10548907_SB Phases=1 XHL=1.765 %Loadloss=0.811 %Noloadloss=0 %imag=0 EmergHKVA=51.8 Wdg=1 Bus=10548907.2 kV=7.62 kVA=37.5 Wdg=2 Bus=sec_10548907.2 kV=0.24 kVA=37.5
New Transformer.10555985_SC Phases=1 XHL=1.803 %Loadloss=1.008 %Noloadloss=0 %imag=0 EmergHKVA=35 Wdg=1 Bus=10555985.3 kV=7.62 kVA=25 Wdg=2 Bus=sec_10555985.3 kV=0.24 kVA=25
New Transformer.10548988_SB Phases=1 XHL=2.1 %Loadloss=0.7639 %Noloadloss=0 %imag=0 EmergHKVA=35 Wdg=1 Bus=10548988.2 kV=7.62 kVA=25 Wdg=2 Bus=sec_10548988.2 kV=0.24 kVA=25
New Transformer.10543795_SC Phases=1 XHL=1.803 %Loadloss=1.008 %Noloadloss=0 %imag=0 EmergHKVA=21 Wdg=1 Bus=10543795.3 kV=7.62 kVA=15 Wdg=2 Bus=sec_10543795.3 kV=0.24 kVA=15
New Transformer.34086801_SC Phases=1 XHL=1.707 %Loadloss=1.022 %Noloadloss=0 %imag=0 EmergHKVA=14 Wdg=1 Bus=34086801.3 kV=7.62 kVA=10 Wdg=2 Bus=sec_34086801.3 kV=0.24 kVA=10
New Transformer.34085286_SB Phases=1 XHL=2.1 %Loadloss=0.7639 %Noloadloss=0 %imag=0 EmergHKVA=35 Wdg=1 Bus=34085286.2 kV=7.62 kVA=25 Wdg=2 Bus=sec_34085286.2 kV=0.24 kVA=25
New Transformer.10574854_SC Phases=1 XHL=2.1 %Loadloss=0.7639 %Noloadloss=0 %imag=0 EmergHKVA=21 Wdg=1 Bus=10574854.3 kV=7.62 kVA=15 Wdg=2 Bus=sec_10574854.3 kV=0.24 kVA=15
New Transformer.10548982_SA Phases=1 XHL=1.773 %Loadloss=0.749 %Noloadloss=0 %imag=0 EmergHKVA=105 Wdg=1 Bus=10548982.1 kV=7.62 kVA=75 Wdg=2 Bus=sec_10548982.1 kV=0.24 kVA=75
New Transformer.34086794_SB Phases=1 XHL=1.773 %Loadloss=0.749 %Noloadloss=0 %imag=0 EmergHKVA=21 Wdg=1 Bus=34086794.2 kV=7.62 kVA=15 Wdg=2 Bus=sec_34086794.2 kV=0.24 kVA=15
New Transformer.34085048_SC Phases=1 XHL=1.707 %Loadloss=1.022 %Noloadloss=0 %imag=0 EmergHKVA=14 Wdg=1 Bus=34085048.3 kV=7.62 kVA=10 Wdg=2 Bus=sec_34085048.3 kV=0.24 kVA=10
New Transformer.20350796_SB Phases=1 XHL=1.765 %Loadloss=0.811 %Noloadloss=0 %imag=0 EmergHKVA=70 Wdg=1 Bus=20350796.2 kV=7.62 kVA=50 Wdg=2 Bus=sec_20350796.2 kV=0.24 kVA=50
New Transformer.10548968_SA Phases=1 XHL=1.765 %Loadloss=0.811 %Noloadloss=0 %imag=0 EmergHKVA=51.8 Wdg=1 Bus=10548968.1 kV=7.62 kVA=37.5 Wdg=2 Bus=sec_10548968.1 kV=0.24 kVA=37.5
New Transformer.10532911_SC Phases=1 XHL=1.765 %Loadloss=0.811 %Noloadloss=0 %imag=0 EmergHKVA=21 Wdg=1 Bus=10532911.3 kV=7.62 kVA=15 Wdg=2 Bus=sec_10532911.3 kV=0.24 kVA=15
New Transformer.34097398_SC Phases=1 XHL=1.803 %Loadloss=1.008 %Noloadloss=0 %imag=0 EmergHKVA=35 Wdg=1 Bus=34097398.3 kV=7.62 kVA=25 Wdg=2 Bus=sec_34097398.3 kV=0.24 kVA=25
New Transformer.34085042_SA Phases=1 XHL=1.803 %Loadloss=1.008 %Noloadloss=0 %imag=0 EmergHKVA=51.8 Wdg=1 Bus=34085042.1 kV=7.62 kVA=37.5 Wdg=2 Bus=sec_34085042.1 kV=0.24 kVA=37.5
New Transformer.20344333_SA Phases=1 XHL=1.7532 %Loadloss=0.738 %Noloadloss=0 %imag=0 EmergHKVA=70 Wdg=1 Bus=20344333.1 kV=7.62 kVA=50 Wdg=2 Bus=sec_20344333.1 kV=0.24 kVA=50
New Transformer.10560618_SC Phases=1 XHL=1.803 %Loadloss=1.008 %Noloadloss=0 %imag=0 EmergHKVA=35 Wdg=1 Bus=10560618.3 kV=7.62 kVA=25 Wdg=2 Bus=sec_10560618.3 kV=0.24 kVA=25
...